48

 C                 -0.78866329   -0.49010446   -0.92202075
 C                 -1.59310563   -0.93470922    0.17148481
 C                 -2.25348432   -0.03709496    0.97480644
 C                 -2.14790725    1.36215992    0.73132138
 C                 -1.38439782    1.83137850   -0.30984349
 C                 -0.68127742    0.93312303   -1.16967727
 H                 -1.67348287   -2.00788430    0.35727605
 H                 -2.86415748   -0.39277549    1.80586264
 H                 -2.67899363    2.06127505    1.37883208
 H                 -1.30285862    2.90414671   -0.49746893
 C                  0.10535500    1.38133941   -2.23962155
 C                  0.78965847    0.49016062   -3.07747500
 C                  0.68227262   -0.93306687   -2.82981847
 C                 -0.10308594   -1.38121137   -1.75890872
 H                  0.18648180    2.45549456   -2.42647471
 H                 -0.18405351   -2.45535750   -1.57193487
 C                  1.59314544    0.93471147   -4.17170466
 C                  2.25240950    0.03703429   -4.97587105
 C                  2.14683245   -1.36222056   -4.73238602
 C                  1.38443764   -1.83137624   -3.69037634
 H                  1.67336346    2.00787755   -4.35761656
 H                  2.86196805    0.39265193   -5.80777204
 H                  2.67680418   -2.06139860   -5.38074147
 H                  1.30273920   -2.90415346   -3.50287158
 C                  2.21395938   -1.64568978    4.47877790
 C                  2.67595374   -2.99717256    4.50750403
 C                  2.02221304   -3.95258469    5.24709529
 C                  0.86467602   -3.61192518    6.00360971
 C                  0.38751777   -2.32376997    6.00305955
 C                  1.03645951   -1.29931896    5.24823352
 H                  3.56371481   -3.25723834    3.92713493
 H                  2.38789117   -4.98033794    5.25873106
 H                  0.35775039   -4.38305101    6.58553520
 H                 -0.49998280   -2.06156687    6.58282538
 C                  0.57369190    0.02359781    5.22766845
 C                  1.21984936    1.02073917    4.48422178
 C                  2.39729098    0.67426829    3.71468494
 C                  2.85918203   -0.64891057    3.73410851
 H                 -0.31503026    0.28501862    5.80841190
 H                  3.74773570   -0.91031464    3.15321907
 C                  0.75856308    2.37250082    4.45649106
 C                  1.41305110    3.32819425    3.71798717
 C                  2.57060709    2.98763238    2.96146206
 C                  3.04699906    1.69909823    2.96093556
 H                 -0.12904976    2.63264501    5.03690356
 H                  1.04822925    4.35630479    3.70739023
 H                  3.07835104    3.75892028    2.38059679
 H                  3.93455785    1.43699517    2.38125093
 