48

 C                 -1.38860882    0.25703217   -1.82634075
 C                 -2.77095169    0.55188254   -1.61958799
 C                 -3.16118929    1.53574550   -0.74387953
 C                 -2.18920696    2.28485130   -0.02108180
 C                 -0.84950879    2.03273666   -0.19074041
 C                 -0.39997409    1.01897195   -1.09115974
 H                 -3.51547729   -0.02305034   -2.17440098
 H                 -4.22098715    1.74893564   -0.59737622
 H                 -2.51629864    3.06273740    0.67028573
 H                 -0.10337033    2.60665707    0.36295296
 C                  0.95944704    0.73852268   -1.28556046
 C                  1.38856851   -0.25787217   -2.17298447
 C                  0.39993378   -1.01981196   -2.90816547
 C                 -0.95953895   -0.74043791   -2.71258100
 H                  1.70559483    1.31351331   -0.73062427
 H                 -1.70569318   -1.31556293   -3.26736921
 C                  2.77095010   -0.55191614   -2.38062503
 C                  3.16123281   -1.53483829   -3.25736926
 C                  2.18925052   -2.28394408   -3.98016698
 C                  0.84950719   -2.03277026   -3.80947259
 H                  3.51548212    0.02315113   -1.82595999
 H                  4.22107584   -1.74708762   -3.40490834
 H                  2.51638731   -3.06088936   -4.67257029
 H                  0.10337516   -2.60655629   -4.36331394
 C                  0.62199136   -0.07017528    4.31064339
 C                  0.31100798   -0.07892088    2.91637565
 C                  1.18260975    0.44704474    1.99395764
 C                  2.42005481    1.01427553    2.41256711
 C                  2.75741702    1.04241780    3.74388935
 C                  1.88077421    0.50672004    4.73631714
 H                 -0.63818898   -0.51401242    2.59652771
 H                  0.93020263    0.43291732    0.93272078
 H                  3.10050654    1.42773183    1.66672179
 H                  3.70603365    1.47715121    4.06586682
 C                  2.19688413    0.52082653    6.10180646
 C                  1.32780332   -0.00660000    7.06671221
 C                  0.06907241   -0.58359400    6.64095149
 C                 -0.24636543   -0.59899728    5.27538032
 H                  3.14695420    0.95623421    6.42308187
 H                 -1.19629946   -1.03457636    4.95415071
 C                  1.63825065    0.00327092    8.46110765
 C                  0.76609121   -0.52147211    9.38364501
 C                 -0.47138415   -1.08870147    8.96513086
 C                 -0.80815840   -1.11806775    7.63359394
 H                  2.58730286    0.43843804    8.78101338
 H                  1.01781756   -0.50614378   10.44506737
 H                 -1.15245603   -1.50095970    9.71097108
 H                 -1.75682695   -1.55270250    7.31170344
