68
cofacial
C	0.0200981	3.5221608	8.07e-05
C	1.24517759	2.8505421	-7.036e-05
C	1.27014277	1.43088115	5.944e-05
C	0.03699778	0.71537112	-1.387e-05
C	-1.20468062	1.41601293	5.342e-05
C	-1.19681315	2.83584674	-2.917e-05
C	2.4944339	0.69457129	-9.75e-06
C	2.50262105	-0.66559472	1.99e-06
C	1.28730545	-1.41660544	6.715e-05
C	0.04562704	-0.71595994	-0.00010358
C	-1.18754505	-1.43143434	3.498e-05
C	-1.16261638	-2.85108848	1.06e-05
C	0.06246428	-3.52274756	4.22e-06
C	1.27943041	-2.83647461	-6.171e-05
C	-2.41070677	3.58221976	-3.882e-05
H	0.01348206	4.60518513	-1.86e-05
C	2.45023611	3.61107232	5.6e-07
H	3.42774048	1.24539506	-1.34e-06
H	3.44250939	-1.20509533	-6.95e-06
C	2.49349916	-3.58258883	3.225e-05
H	0.0689077	-4.60576586	4.4e-07
C	-2.36768676	-3.61162817	-4.735e-05
C	-2.41182241	-0.69511665	5.8e-06
C	-2.42001394	0.66504305	-2.513e-05
H	-3.3598742	1.20462378	1.105e-05
H	-3.34511011	-1.24594809	-6.49e-06
C	3.51025451	-4.22843085	-5.667e-05
C	-3.37679878	-4.2693118	0.00010337
C	-3.42696224	4.2288215	0.00011281
C	3.45927116	4.26887812	1.307e-05
H	4.347858	4.85486939	-1.52e-05
H	4.40556628	-4.80411149	4.654e-05
H	-4.26538767	-4.8553274	-5.798e-05
H	-4.32178515	4.80526531	-7.541e-05
C	0.0200981	3.5221608	3.5000807
C	1.24517759	2.8505421	3.49992964
C	1.27014277	1.43088115	3.50005944
C	0.03699778	0.71537112	3.49998613
C	-1.20468062	1.41601293	3.50005342
C	-1.19681315	2.83584674	3.49997083
C	2.4944339	0.69457129	3.49999025
C	2.50262105	-0.66559472	3.50000199
C	1.28730545	-1.41660544	3.50006715
C	0.04562704	-0.71595994	3.49989642
C	-1.18754505	-1.43143434	3.50003498
C	-1.16261638	-2.85108848	3.5000106
C	0.06246428	-3.52274756	3.50000422
C	1.27943041	-2.83647461	3.49993829
C	-2.41070677	3.58221976	3.49996118
H	0.01348206	4.60518513	3.4999814
C	2.45023611	3.61107232	3.50000056
H	3.42774048	1.24539506	3.49999866
H	3.44250939	-1.20509533	3.49999305
C	2.49349916	-3.58258883	3.50003225
H	0.0689077	-4.60576586	3.50000044
C	-2.36768676	-3.61162817	3.49995265
C	-2.41182241	-0.69511665	3.5000058
C	-2.42001394	0.66504305	3.49997487
H	-3.3598742	1.20462378	3.50001105
H	-3.34511011	-1.24594809	3.49999351
C	3.51025451	-4.22843085	3.49994333
C	-3.37679878	-4.2693118	3.50010337
C	-3.42696224	4.2288215	3.50011281
C	3.45927116	4.26887812	3.50001307
H	4.347858	4.85486939	3.4999848
H	4.40556628	-4.80411149	3.50004654
H	-4.26538767	-4.8553274	3.49994202
H	-4.32178515	4.80526531	3.49992459
