66

C	-1.92610298	8.87713335	0.0
C	-0.54750847	9.10414217	0.0
C	0.34800293	8.00176143	0.0
C	-0.18155821	6.67785987	0.0
C	-1.59106869	6.46353157	0.0
C	-2.4608185	7.58635025	0.0
C	1.76529792	8.17705799	0.0
C	2.61105102	7.11074523	0.0
C	2.11789051	5.77124337	0.0
C	0.70808373	5.55631549	0.0
C	0.17816584	4.23325074	0.0
C	1.07508903	3.12769889	0.0
C	2.45738667	3.35828881	0.0
C	2.98901597	4.64784841	0.0
C	-3.8764764	7.42475223	0.0
H	-2.59921273	9.72554086	0.0
C	-0.06785903	10.44593054	0.0
H	2.16089877	9.18597583	0.0
H	3.68352847	7.26621994	0.0
C	4.40482317	4.8117748	0.0
H	3.13143067	2.51065163	0.0
C	0.60142585	1.7954109	0.0
C	-1.23831752	4.0574454	0.0
C	-2.08439374	5.12330341	0.0
H	-3.15685076	4.96765228	0.0
H	-1.63460074	3.04857729	0.0
C	5.60310581	4.93312312	0.0
C	0.21522437	0.64114172	0.0
C	-5.07514765	7.30623621	0.0
C	0.32118039	11.58588609	0.0
H	0.65953373	12.59513842	0.0
H	6.66273099	5.03430962	0.0
H	-6.13499764	7.20730523	0.0
C	-5.389173433066129	-5.004937914782339	-1.2798064746838684
C	-0.5145692852395769	-11.520967520759283	1.1569093178265222
C	-2.385298538450571	-3.382488019337372	-0.4312524304506763
C	1.3872338843528562	-6.395106421142929	1.2193998298526842
C	-0.24553022165537514	-4.210637242625008	0.4029935675995123
C	-2.1081049460247376	-5.774528278431276	-0.058540125218380035
C	-0.4747275013957056	-7.959221356266909	0.7581037021988256
C	3.531284338724027	-7.308874972913809	2.065040557965755
C	-0.21522437	-0.6411417200000002	0.0
C	0.35219038016929727	-9.038575990913392	1.168450327953339
C	-1.8183948408946295	-8.159233925534991	0.317641416043021
C	1.878205315774405	-5.054088176735744	1.233479869250224
C	1.6601956633506507	-8.787871127750218	1.5907358689276125
C	-0.601494914132312	-1.795387715914637	0.00041316197654650555
C	1.0973787348755375	-4.010133767812069	0.8431373143305063
C	-0.7707988942387693	-5.53526268483746	0.3751805799757437
C	-2.5989075409726	-7.114821665118402	-0.07264586738667766
C	-2.91157626112399	-4.67384408620685	-0.4632671418772055
C	-4.25362957648303	-4.86252886091609	-0.9044845978294875
C	-0.12587504288251755	-10.380896098342276	1.1589742721297587
C	4.667144211095214	-7.1692738499524955	2.440796714772341
C	2.1894145943446697	-7.495242882021813	1.6236180829213578
C	-1.0737256784987255	-3.128156552415028	-0.008155970141633495
C	0.05021898210207981	-6.633770705781181	0.7857099362556825
H	5.671350566447819	-7.051663901110014	2.7736733224056596
H	-3.6160857232169903	-7.288859743704309	-0.4034623708689111
H	2.281386869053672	-9.618850141617363	1.901327889171344
H	1.4905391241362234	-3.0002173571672666	0.8618190073813501
H	-2.2109107492448854	-9.16918734722051	0.2991863866830411
H	2.89536738515378	-4.879875127365554	1.56427054635973
H	-3.007387373626117	-2.552291628586884	-0.742063525473275
H	-0.8529465705323478	-12.5302118125824	1.1570525656189563
H	-6.3932082006166535	-5.124785517506208	-1.6123646914570964
