66

C	-1.92610298	8.87713335	0.0
C	-0.54750847	9.10414217	0.0
C	0.34800293	8.00176143	0.0
C	-0.18155821	6.67785987	0.0
C	-1.59106869	6.46353157	0.0
C	-2.4608185	7.58635025	0.0
C	1.76529792	8.17705799	0.0
C	2.61105102	7.11074523	0.0
C	2.11789051	5.77124337	0.0
C	0.70808373	5.55631549	0.0
C	0.17816584	4.23325074	0.0
C	1.07508903	3.12769889	0.0
C	2.45738667	3.35828881	0.0
C	2.98901597	4.64784841	0.0
C	-3.8764764	7.42475223	0.0
H	-2.59921273	9.72554086	0.0
C	-0.06785903	10.44593054	0.0
H	2.16089877	9.18597583	0.0
H	3.68352847	7.26621994	0.0
C	4.40482317	4.8117748	0.0
H	3.13143067	2.51065163	0.0
C	0.60142585	1.7954109	0.0
C	-1.23831752	4.0574454	0.0
C	-2.08439374	5.12330341	0.0
H	-3.15685076	4.96765228	0.0
H	-1.63460074	3.04857729	0.0
C	5.60310581	4.93312312	0.0
C	0.21522437	0.64114172	0.0
C	-5.07514765	7.30623621	0.0
C	0.32118039	11.58588609	0.0
H	0.65953373	12.59513842	0.0
H	6.66273099	5.03430962	0.0
H	-6.13499764	7.20730523	0.0
C	-5.482232227545699	-4.973699079763421	-0.968475968908942
C	-0.4304467334563374	-11.549206555352661	0.8754752337056192
C	-2.416656272676785	-3.371961565695478	-0.32634435259301414
C	1.4759003197861627	-6.42487078853783	0.9227640702440517
C	-0.21622727912017992	-4.220473924827321	0.30495984632474715
C	-2.112361584500372	-5.773099370741043	-0.044299435588435965
C	-0.41960337285545196	-7.977725932504555	0.5736845625052986
C	3.681439997940537	-7.359280610464284	1.5626910746065437
C	-0.21522437	-0.64114172	0.0
C	0.4371521154624838	-9.067096730372652	0.8842087345792708
C	-1.7952981244468957	-8.166987244483776	0.2403707781239831
C	1.9678955556019526	-5.084196224238928	0.9334189466394667
C	1.7758631218500949	-8.826699447774446	1.2037675167399247
C	-0.6014648718124591	-1.795397800797841	0.0003126546501110994
C	1.1586859274897343	-4.030713932064769	0.63803258037214
C	-0.7435183223903472	-5.544420478982126	0.28391275000978644
C	-2.60418985277259	-7.113048449940178	-0.05497376220254091
C	-2.945261886722765	-4.662536184503694	-0.3505710456762844
C	-4.31939752496926	-4.840451268961629	-0.6844562944272539
C	-0.04160234171191679	-10.409185536467813	0.8770378595081444
C	4.844622294180016	-7.228851330919939	1.8470393844763233
C	2.3074730230842304	-7.53487382500375	1.2286506804739805
C	-1.074318724997712	-3.1279574730927138	-0.006171918365440343
C	0.10735044762043908	-6.652949123422394	0.59457520089869
H	5.873033165160233	-7.119366577279398	2.098939184549169
H	-3.6454227539272033	-7.27901161846879	-0.30531460675887523
H	2.419638460037675	-9.665259711674711	1.4388037614309321
H	1.5532047220003844	-3.021253523431704	0.6521696949563935
H	-2.189155956610085	-9.176490196798454	0.22640518817409283
H	3.0091104659739436	-4.918057454529318	1.1837402474430183
H	-3.06134516996002	-2.5341785775089525	-0.5615463791134812
H	-0.7688136027470487	-12.558454343715486	0.8755836345047368
H	-6.510448359512932	-5.0854292588975	-1.2201348310721758
