66

C	-1.92610298	8.87713335	0.0
C	-0.54750847	9.10414217	0.0
C	0.34800293	8.00176143	0.0
C	-0.18155821	6.67785987	0.0
C	-1.59106869	6.46353157	0.0
C	-2.4608185	7.58635025	0.0
C	1.76529792	8.17705799	0.0
C	2.61105102	7.11074523	0.0
C	2.11789051	5.77124337	0.0
C	0.70808373	5.55631549	0.0
C	0.17816584	4.23325074	0.0
C	1.07508903	3.12769889	0.0
C	2.45738667	3.35828881	0.0
C	2.98901597	4.64784841	0.0
C	-3.8764764	7.42475223	0.0
H	-2.59921273	9.72554086	0.0
C	-0.06785903	10.44593054	0.0
H	2.16089877	9.18597583	0.0
H	3.68352847	7.26621994	0.0
C	4.40482317	4.8117748	0.0
H	3.13143067	2.51065163	0.0
C	0.60142585	1.7954109	0.0
C	-1.23831752	4.0574454	0.0
C	-2.08439374	5.12330341	0.0
H	-3.15685076	4.96765228	0.0
H	-1.63460074	3.04857729	0.0
C	5.60310581	4.93312312	0.0
C	0.21522437	0.64114172	0.0
C	-5.07514765	7.30623621	0.0
C	0.32118039	11.58588609	0.0
H	0.65953373	12.59513842	0.0
H	6.66273099	5.03430962	0.0
H	-6.13499764	7.20730523	0.0
C	-4.961571829696521	-5.148479167559047	-2.146267847941331
C	-0.9011091950162147	-11.391210236267588	1.9401662055570945
C	-2.241210948361374	-3.430856671437824	-0.7232212401890487
C	0.9798150028985861	-6.258340290735599	2.0449643757619085
C	-0.3801761224707741	-4.165438063922245	0.6758304120001078
C	-2.0885458549433924	-5.781094054646486	-0.09817327155006339
C	-0.7280207648640962	-7.874193535810571	1.2713590950042237
C	2.8413248244720437	-7.077262995174489	3.463125278649281
C	-0.21522437	-0.64114172	0.0
C	-0.03820554575693125	-8.907524283331425	1.9595207716246485
C	-1.924523370077246	-8.123607721343575	0.5326926937106584
C	1.4660820922645263	-4.9157428493683675	2.068576958175317
C	1.1287081130481624	-8.609456481489644	2.667704311223848
C	-0.6016329574436388	-1.7953413762618171	0.0006928830911506756
C	0.8156745283410889	-3.9155686997679444	1.413962614616532
C	-0.8961520790555559	-5.493182970808421	0.6291873278519127
C	-2.5746355201732114	-7.122969521079445	-0.12182895816052985
C	-2.756792099163815	-4.7258034622771765	-0.7769107214935189
C	-3.9514283672333756	-4.963974552009152	-1.5168435616479412
C	-0.5131048833544718	-10.250907211547048	1.94362918618438
C	3.8516392035949742	-6.895517602314946	4.093277863413465
C	1.6469406271860387	-7.313140213951613	2.7228486162886703
C	-1.0710006525056674	-3.1290713142910596	-0.013677768342343688
C	-0.2122979180482743	-6.5456466098337	1.3176554481880993
H	4.744626734880134	-6.740572692113131	4.651520358999878
H	-3.4812831885404365	-7.334111502707239	-0.6766166069475659
H	1.6461260932853328	-9.405599941255339	3.1885749897699363
H	1.2025930974045664	-2.9035569773103385	1.4452922866671751
H	-2.3108731898034307	-9.13563103256846	0.5017431424060972
H	2.372722276726354	-4.7044287936050955	2.6233212954816643
H	-2.7594533620617074	-2.6355204059007713	-1.2444593126837367
H	-1.2395343414402857	-12.400438461624416	1.9404064357303836
H	-5.854494152108732	-5.305626021381492	-2.703976393997399
