66

C	-1.92610298	8.87713335	0.0
C	-0.54750847	9.10414217	0.0
C	0.34800293	8.00176143	0.0
C	-0.18155821	6.67785987	0.0
C	-1.59106869	6.46353157	0.0
C	-2.4608185	7.58635025	0.0
C	1.76529792	8.17705799	0.0
C	2.61105102	7.11074523	0.0
C	2.11789051	5.77124337	0.0
C	0.70808373	5.55631549	0.0
C	0.17816584	4.23325074	0.0
C	1.07508903	3.12769889	0.0
C	2.45738667	3.35828881	0.0
C	2.98901597	4.64784841	0.0
C	-3.8764764	7.42475223	0.0
H	-2.59921273	9.72554086	0.0
C	-0.06785903	10.44593054	0.0
H	2.16089877	9.18597583	0.0
H	3.68352847	7.26621994	0.0
C	4.40482317	4.8117748	0.0
H	3.13143067	2.51065163	0.0
C	0.60142585	1.7954109	0.0
C	-1.23831752	4.0574454	0.0
C	-2.08439374	5.12330341	0.0
H	-3.15685076	4.96765228	0.0
H	-1.63460074	3.04857729	0.0
C	5.60310581	4.93312312	0.0
C	0.21522437	0.64114172	0.0
C	-5.07514765	7.30623621	0.0
C	0.32118039	11.58588609	0.0
H	0.65953373	12.59513842	0.0
H	6.66273099	5.03430962	0.0
H	-6.13499764	7.20730523	0.0
C	-4.564106216498628	-5.2819040930141865	-2.645925552968726
C	-1.2604070111472523	-11.2705978292023	2.391842819251988
C	-2.107278189696045	-3.4758164560016915	-0.8915893520472867
C	0.6011096980785542	-6.131212998745382	2.5210383233058056
C	-0.5053326118535248	-4.123424378431907	0.8331657944276061
C	-2.07036522589762	-5.787197096003052	-0.1210283087742321
C	-0.9634627311476942	-7.795158203552129	1.5673353722823993
C	2.1999914448662508	-6.861974287109089	4.269351412359485
C	-0.21522437	-0.64114172	0.0
C	-0.4010876183812107	-8.785708679965518	2.415703187366752
C	-2.023172300756998	-8.090492337810707	0.6567051784895874
C	1.0830039923354713	-4.7871476571571545	2.550147986966446
C	0.6346781014127101	-8.443615927523927	3.2887540162344933
C	-0.6017612719049317	-1.7952983024791693	0.0008541883893261604
C	0.5538239311770297	-3.82766827455656	1.7431374264609594
C	-1.012670773272067	-5.4540689001221905	0.7756640579433378
C	-2.5520741135868983	-7.130543142273294	-0.15019111142055142
C	-2.61291662872119	-4.774100908096905	-0.9577779084501585
C	-3.670525330394817	-5.058270676015348	-1.86996937193558
C	-0.8730440060772457	-10.130079524766096	2.396111992337705
C	3.0936083746229364	-6.6410548173848305	5.046205441970061
C	1.1426984861334752	-7.143871558130105	3.356736083808989
C	-1.0684676776085302	-3.1299216066826734	-0.01686199455455062
C	-0.45631346867024175	-6.463733217654485	1.6244096577756935
H	3.883215428008191	-6.4514061942093734	5.734408494185518
H	-3.3559811043489187	-7.376174062806754	-0.8341350179581593
H	1.055636460431726	-9.207378931363097	3.9308849783505164
H	0.9349405835203544	-2.813708911145426	1.7817607417775632
H	-2.403790598017678	-9.104439659396014	0.6185504771888137
H	1.8869115200103002	-4.5413473549905	3.234038498978481
H	-2.528992944788946	-2.7128834858099484	-1.5341732385443652
H	-1.5988766456035264	-12.279811120405876	2.392138975742759
H	-5.353746942694176	-5.4737214662942115	-3.333470350573654
