66

C	-1.92610298	8.87713335	0.0
C	-0.54750847	9.10414217	0.0
C	0.34800293	8.00176143	0.0
C	-0.18155821	6.67785987	0.0
C	-1.59106869	6.46353157	0.0
C	-2.4608185	7.58635025	0.0
C	1.76529792	8.17705799	0.0
C	2.61105102	7.11074523	0.0
C	2.11789051	5.77124337	0.0
C	0.70808373	5.55631549	0.0
C	0.17816584	4.23325074	0.0
C	1.07508903	3.12769889	0.0
C	2.45738667	3.35828881	0.0
C	2.98901597	4.64784841	0.0
C	-3.8764764	7.42475223	0.0
H	-2.59921273	9.72554086	0.0
C	-0.06785903	10.44593054	0.0
H	2.16089877	9.18597583	0.0
H	3.68352847	7.26621994	0.0
C	4.40482317	4.8117748	0.0
H	3.13143067	2.51065163	0.0
C	0.60142585	1.7954109	0.0
C	-1.23831752	4.0574454	0.0
C	-2.08439374	5.12330341	0.0
H	-3.15685076	4.96765228	0.0
H	-1.63460074	3.04857729	0.0
C	5.60310581	4.93312312	0.0
C	0.21522437	0.64114172	0.0
C	-5.07514765	7.30623621	0.0
C	0.32118039	11.58588609	0.0
H	0.65953373	12.59513842	0.0
H	6.66273099	5.03430962	0.0
H	-6.13499764	7.20730523	0.0
C	-4.773179704228362	-5.211720375005109	-2.405249400588917
C	-1.0714104160762936	-11.334041950583595	2.174278297760084
C	-2.1777290363746564	-3.452166865561109	-0.8104894531809774
C	0.8003149532538105	-6.198084057371521	2.291722043800319
C	-0.4394982280014735	-4.145524272023134	0.7573801633948977
C	-2.0799285375339087	-5.783986795288205	-0.11001944737518965
C	-0.8396163620170147	-7.8367320957844715	1.4247689094934284
C	2.537343411978235	-6.975219709026006	3.88100674788807
C	-0.21522437	-0.64114172	-5.551115123125783e-17
C	-0.21020564510122702	-8.849785702505155	2.1959683018652543
C	-1.9712813312915323	-8.10791157736962	0.5969705894232269
C	1.2845094100762773	-4.854790855582694	2.3181838620448048
C	0.8945460601645501	-8.530850802374296	2.9896055153014753
C	-0.6016937763756132	-1.7953209600014024	0.0007764905211001261
C	0.6915616770230986	-3.8739053523354636	1.5845798251712515
C	-0.9513800125706342	-5.474643548358756	0.7051088449307674
C	-2.5639417866797665	-7.126559292236553	-0.1365295710277057
C	-2.688597506274789	-4.748695652621532	-0.8706574293491771
C	-3.818284974690059	-5.0086693548677115	-1.6998750043897592
C	-0.6837100731300374	-10.193636886839156	2.1781591424021074
C	3.492345130602221	-6.774906451780865	4.5871973234201135
C	1.4079381938957631	-7.232909671266967	3.0514038629915263
C	-1.0698000643068801	-3.129474338818481	-0.01532820991488637
C	-0.32795725234662915	-6.506821017016275	1.4766516583552627
H	4.336332025563704	-6.603512555725559	5.212800707070664
H	-3.421892073478925	-7.354048460362579	-0.7582612253406067
H	1.3662437756549588	-9.311646461693694	3.5733275742975192
H	1.0757302335410766	-2.860970480285289	1.6196899233785822
H	-2.354914504184404	-9.120846837676858	0.5622864796113061
H	2.1424560147051808	-4.627130889522731	2.939866978653959
H	-2.650218936731238	-2.6721892259770286	-1.3946232380832249
H	-1.4098566490916729	-12.343263097398834	2.1745475155470726
H	-5.6171482585989745	-5.385300481503546	-3.030254405155963
