66

C	-1.92610298	8.87713335	0.0
C	-0.54750847	9.10414217	0.0
C	0.34800293	8.00176143	0.0
C	-0.18155821	6.67785987	0.0
C	-1.59106869	6.46353157	0.0
C	-2.4608185	7.58635025	0.0
C	1.76529792	8.17705799	0.0
C	2.61105102	7.11074523	0.0
C	2.11789051	5.77124337	0.0
C	0.70808373	5.55631549	0.0
C	0.17816584	4.23325074	0.0
C	1.07508903	3.12769889	0.0
C	2.45738667	3.35828881	0.0
C	2.98901597	4.64784841	0.0
C	-3.8764764	7.42475223	0.0
H	-2.59921273	9.72554086	0.0
C	-0.06785903	10.44593054	0.0
H	2.16089877	9.18597583	0.0
H	3.68352847	7.26621994	0.0
C	4.40482317	4.8117748	0.0
H	3.13143067	2.51065163	0.0
C	0.60142585	1.7954109	0.0
C	-1.23831752	4.0574454	0.0
C	-2.08439374	5.12330341	0.0
H	-3.15685076	4.96765228	0.0
H	-1.63460074	3.04857729	0.0
C	5.60310581	4.93312312	0.0
C	0.21522437	0.64114172	0.0
C	-5.07514765	7.30623621	0.0
C	0.32118039	11.58588609	0.0
H	0.65953373	12.59513842	0.0
H	6.66273099	5.03430962	0.0
H	-6.13499764	7.20730523	0.0
C	-5.58960700947521	-4.937654521947613	-0.32612840515689945
C	-0.33338292875529746	-11.581789829167047	0.29481097196911693
C	-2.4528380209271607	-3.3598157425026187	-0.10989448025542838
C	1.5782070305313605	-6.459214049442622	0.31073520069249827
C	-0.18241642779542655	-4.231823863457946	0.10269337754536892
C	-2.117273056120331	-5.77145064261713	-0.01491756609519529
C	-0.3559990535198582	-7.99907721745647	0.19318479491418103
C	3.854695317376187	-7.417440555155899	0.5262267358977399
C	-0.21522437	-0.64114172	0.0
C	0.5351842020640503	-9.10000504599218	0.297751925387475
C	-1.768648253193646	-8.17593331923159	0.080943400799311
C	2.07138357085668	-5.118936036344353	0.3143231656575921
C	1.9093246415503637	-8.871501042493215	0.4053614059792787
C	-0.6014302078394205	-1.7954094371202427	0.0001052845560231136
C	1.2294245016833316	-4.05446010953317	0.21485359942314836
C	-0.7120409594015145	-5.554987090711172	0.09560589558945147
C	-2.6102847853448385	-7.111002446721023	-0.018512080803395725
C	-2.9841296447144257	-4.649488696770299	-0.11805267212711068
C	-4.395283089210159	-4.814977302369901	-0.23048650340042584
C	0.05563471107185311	-10.441826967797605	0.2953371767250374
C	5.04940326705928	-7.297594097926159	0.6219793036267696
C	2.4436933353260124	-7.580601516665183	0.41374066035870116
C	-1.075003004638974	-3.127727767787162	-0.002078356054148925
C	0.1732709088262186	-6.675077912254172	0.2002195906145034
H	6.105742230185532	-7.197484504020087	0.7068050326013859
H	-3.6792729374868025	-7.267648476430553	-0.10281284096863305
H	2.5791584120887836	-9.718808841471834	0.48450843501862506
H	1.6255106759166886	-3.0455258533915845	0.21961418696573554
H	-2.1640544481696735	-9.184916502826608	0.07624057313641716
H	3.140351565403153	-4.962113678078082	0.3986173445826847
H	-3.1236037307672064	-2.5132790492005572	-0.18909733531976783
H	-0.6717377796660595	-12.591041651970576	0.29484747528036975
H	-6.645724520839442	-5.040018508529366	-0.4108729997526298
